tests/data/power_flow/asymmetric-source/asym_output.json
{
  "version": "1.0",
  "type": "asym_output",
  "is_batch": false,
  "attributes": {},
  "data": {
    "node": [
      {
        "id": 1,
        "u_pu": [
          0.1818901317056231,
          0.3346332357130999,
          0.8522231826324974
        ],
        "u": [
          1050.14316503178,
          1932.005887187537,
          4920.31283902512
        ],
        "u_angle": [
          -0.4212038476490261,
          -2.286393424295455,
          1.90653886559148
        ]
      }
    ],
    "source": [
      {
        "id": 3,
        "p": [
          330840.2001188892,
          111979.4024438188,
          726284.3530162643
        ],
        "q": [
          330840.2001188895,
          671876.4146629144,
          726284.3530162624
        ],
        "i": [
          445.5380119264053,
          352.5579905669975,
          208.7511944420338
        ],
        "s": [
          467878.6979863621,
          681144.1133504474,
          1027121.182174968
        ],
        "pf": [
          0.7071067811865472,
          0.164398987305357,
          0.7071067811865483
        ]
      }
    ],
    "asym_load": [
      {
        "id": 2,
        "p": [
          330840.2001188892,
          111979.4024438188,
          726284.3530162643
        ],
        "q": [
          330840.2001188895,
          671876.4146629144,
          726284.3530162624
        ],
        "s": [
          467878.6979863621,
          681144.1133504474,
          1027121.182174968
        ],
        "pf": [
          0.7071067811865472,
          0.164398987305357,
          0.7071067811865483
        ]
      }
    ]
  }
}
